Circuit: * C:\Users\vmuser\Desktop\NMOS\sim_nmos_salida.asc

Instance "m:m1:1": Length shorter than recommended for a level 3 MOSFET.
.step vvar=1.1
.step vvar=1.3
.step vvar=1.5
.step vvar=1.7
.step vvar=1.9

Date: Tue Jun 01 13:09:20 2021
Total elapsed time: 0.139 seconds.

tnom = 27
temp = 27
method = trap
totiter = 1006
traniter = 0
tranpoints = 0
accept = 0
rejected = 0
matrix size = 7
fillins = 0
solver = Normal
Matrix Compiler1: 268 bytes object code size  0.1/0.1/[0.1]
Matrix Compiler2: off  [0.1]/0.2/0.1

