Circuit: * C:\Users\vmuser\Desktop\NMOS\sim_nmos_transferencia.asc

Instance "m:m1:1": Length shorter than recommended for a level 3 MOSFET.

Date: Tue Jun 01 13:14:35 2021
Total elapsed time: 0.032 seconds.

tnom = 27
temp = 27
method = trap
totiter = 206
traniter = 0
tranpoints = 0
accept = 0
rejected = 0
matrix size = 7
fillins = 0
solver = Normal
Matrix Compiler1: 268 bytes object code size  0.1/0.1/[0.0]
Matrix Compiler2: 503 bytes object code size  0.1/0.1/[0.1]

