Circuit: * C:\Users\sebas\OneDrive\Attachments\Desktop\TareaDeActivos\DIODO\sum_diodo.asc

.OP point found by inspection.

Date: Tue Jun 01 19:54:08 2021
Total elapsed time: 0.477 seconds.

tnom = 27
temp = 27
method = trap
totiter = 600
traniter = 0
tranpoints = 0
accept = 0
rejected = 0
matrix size = 4
fillins = 0
solver = Normal
Matrix Compiler1: 100 bytes object code size  0.1/0.1/[0.1]
Matrix Compiler2: 248 bytes object code size  0.1/0.1/[0.1]

