Circuit: * C:\Users\ACER\Desktop\BJT\pnp\sim_bjt_transfer.asc

Warning: Multiple definitions of model "2n3906" Type: BJT

Date: Sun Jun 06 18:49:38 2021
Total elapsed time: 0.048 seconds.

tnom = 27
temp = 27
method = trap
totiter = 207
traniter = 0
tranpoints = 0
accept = 0
rejected = 0
matrix size = 7
fillins = 0
solver = Normal
Matrix Compiler1:      18 opcodes  0.1/[0.0]/0.0
Matrix Compiler2: off  [0.0]/0.1/0.0

