Circuit: * C:\Users\ACER\Desktop\Caca\sim_bjt_transfer.asc

Warning: Multiple definitions of model "2n3906" Type: BJT

Date: Fri Jun 11 03:42:20 2021
Total elapsed time: 0.077 seconds.

tnom = 27
temp = 27
method = trap
totiter = 204
traniter = 0
tranpoints = 0
accept = 0
rejected = 0
matrix size = 7
fillins = 2
solver = Normal
Matrix Compiler1: 464 bytes object code size  0.2/0.1/[0.1]
Matrix Compiler2: 571 bytes object code size  0.1/0.1/[0.1]

