Circuit: * C:\Users\ACER\Desktop\Caca\sim_bjt_output.asc

Warning: Multiple definitions of model "2n3906" Type: BJT
.step vvar=0.3
.step vvar=0.5
.step vvar=0.7
.step vvar=0.9
.step vvar=1.1
.step vvar=1.3

Date: Fri Jun 11 03:42:16 2021
Total elapsed time: 0.490 seconds.

tnom = 27
temp = 27
method = trap
totiter = 1012
traniter = 0
tranpoints = 0
accept = 0
rejected = 0
matrix size = 7
fillins = 2
solver = Normal
Matrix Compiler1: 464 bytes object code size  0.1/0.1/[0.1]
Matrix Compiler2: 571 bytes object code size  0.1/0.1/[0.1]

