Circuit: * C:\Users\ACER\Desktop\BJT\npn\sim_bjt_transfer.asc

Warning: Multiple definitions of model "2n3904" Type: BJT

Date: Fri Jun 04 04:04:24 2021
Total elapsed time: 0.047 seconds.

tnom = 27
temp = 27
method = trap
totiter = 205
traniter = 0
tranpoints = 0
accept = 0
rejected = 0
matrix size = 7
fillins = 0
solver = Normal
Matrix Compiler1: 312 bytes object code size  0.1/0.1/[0.0]
Matrix Compiler2: off  [0.0]/0.1/0.0

