Circuit: * C:\Users\ACER\Desktop\BJT\npn\sim_bjt_output.asc

Warning: Multiple definitions of model "2n3904" Type: BJT
.step vvar=0.3
.step vvar=0.5
.step vvar=0.7
.step vvar=0.9
.step vvar=1.1
.step vvar=1.3

Date: Fri Jun 04 04:16:57 2021
Total elapsed time: 0.161 seconds.

tnom = 27
temp = 27
method = trap
totiter = 1009
traniter = 0
tranpoints = 0
accept = 0
rejected = 0
matrix size = 7
fillins = 0
solver = Normal
Matrix Compiler1:      18 opcodes  0.1/[0.0]/0.0
Matrix Compiler2: 515 bytes object code size  0.1/0.1/[0.1]

