Circuit: * C:\Users\ACER\Desktop\BJT\sim_bjt_npn.asc

Warning: Multiple definitions of model "2n3904" Type: BJT

Date: Fri Jun 04 03:51:12 2021
Total elapsed time: 0.030 seconds.

tnom = 27
temp = 27
method = trap
totiter = 205
traniter = 0
tranpoints = 0
accept = 0
rejected = 0
matrix size = 7
fillins = 0
solver = Normal
Matrix Compiler1:      18 opcodes  0.1/[0.0]/0.1
Matrix Compiler2: 515 bytes object code size  0.1/0.1/[0.0]

